*SPEF "ieee 1481-1999"
*DESIGN "fibonacci"
*DATE "11:11:11 Fri 11 11, 1111"
*VENDOR "OpenRCX"
*PROGRAM "Parallel Extraction"
*VERSION "1.0"
*DESIGN_FLOW "NAME_SCOPE LOCAL" "PIN_CAP NONE"
*DIVIDER /
*DELIMITER :
*BUS_DELIMITER []
*T_UNIT 1 NS
*C_UNIT 1 PF
*R_UNIT 1 OHM
*L_UNIT 1 HENRY

*NAME_MAP
*1 clk
*2 fn[0]
*3 fn[10]
*4 fn[11]
*5 fn[12]
*6 fn[13]
*7 fn[14]
*8 fn[15]
*9 fn[16]
*10 fn[17]
*11 fn[18]
*12 fn[19]
*13 fn[1]
*14 fn[20]
*15 fn[21]
*16 fn[22]
*17 fn[23]
*18 fn[24]
*19 fn[25]
*20 fn[26]
*21 fn[27]
*22 fn[28]
*23 fn[29]
*24 fn[2]
*25 fn[30]
*26 fn[31]
*27 fn[3]
*28 fn[4]
*29 fn[5]
*30 fn[6]
*31 fn[7]
*32 fn[8]
*33 fn[9]
*34 n[0]
*35 n[1]
*36 n[2]
*37 n[3]
*38 n[4]
*39 n[5]
*40 n[6]
*41 n[7]
*42 st
*45 _000_
*46 _001_
*47 _002_
*48 _003_
*49 _004_
*50 _005_
*51 _006_
*52 _007_
*53 _008_
*54 _009_
*55 _010_
*56 _011_
*57 _012_
*58 _013_
*59 _014_
*60 _015_
*61 _016_
*62 _017_
*63 _018_
*64 _019_
*65 _020_
*66 _021_
*67 _022_
*68 _023_
*69 _024_
*70 _025_
*71 _026_
*72 _027_
*73 _028_
*74 _029_
*75 _030_
*76 _031_
*77 _032_
*78 _033_
*79 _034_
*80 _035_
*81 _036_
*82 _037_
*83 _038_
*84 _039_
*85 _040_
*86 _041_
*87 _042_
*88 _043_
*89 _044_
*90 _045_
*91 _046_
*92 _047_
*93 _048_
*94 _049_
*95 _050_
*96 _051_
*97 _052_
*98 _053_
*99 _054_
*100 _055_
*101 _056_
*102 _057_
*103 _058_
*104 _059_
*105 _060_
*106 _061_
*107 _062_
*108 _063_
*109 _064_
*110 _065_
*111 _066_
*112 _067_
*113 _068_
*114 _069_
*115 _070_
*116 _071_
*117 _072_
*118 _073_
*119 _074_
*120 _075_
*121 _076_
*122 _077_
*123 _078_
*124 _079_
*125 _080_
*126 _081_
*127 _082_
*128 _083_
*129 _084_
*130 _085_
*131 _086_
*132 _087_
*133 _088_
*134 _089_
*135 _090_
*136 _091_
*137 _092_
*138 _093_
*139 _094_
*140 _095_
*141 _096_
*142 _097_
*143 _098_
*144 _099_
*145 _100_
*146 _101_
*147 _102_
*148 _103_
*149 _104_
*150 _105_
*151 _106_
*152 _107_
*153 _108_
*154 _109_
*155 _110_
*156 _111_
*157 _112_
*158 _113_
*159 _114_
*160 _115_
*161 _116_
*162 _117_
*163 _118_
*164 _119_
*165 _120_
*166 _121_
*167 _122_
*168 _123_
*169 _124_
*170 _125_
*171 _126_
*172 _127_
*173 _128_
*174 _129_
*175 _130_
*176 _131_
*177 _132_
*178 _133_
*179 _134_
*180 _135_
*181 _136_
*182 _137_
*183 _138_
*184 _139_
*185 _140_
*186 _141_
*187 _142_
*188 _143_
*189 _144_
*190 _145_
*191 _146_
*192 _147_
*193 _148_
*194 _149_
*195 _150_
*196 _151_
*197 _152_
*198 _153_
*199 _154_
*200 _155_
*201 _156_
*202 _157_
*203 _158_
*204 _159_
*205 _160_
*206 _161_
*207 _162_
*208 _163_
*209 _164_
*210 _165_
*211 _166_
*212 _167_
*213 _168_
*214 _169_
*215 _170_
*216 _171_
*217 _172_
*218 _173_
*219 _174_
*220 _175_
*221 _176_
*222 _177_
*223 _178_
*224 _179_
*225 _180_
*226 _181_
*227 _182_
*228 _183_
*229 _184_
*230 _185_
*231 _186_
*232 _187_
*233 _188_
*234 _189_
*235 _190_
*236 _191_
*237 _192_
*238 _193_
*239 _194_
*240 _195_
*241 _196_
*242 _197_
*243 _198_
*244 _199_
*245 _200_
*246 _201_
*247 _202_
*248 _203_
*249 _204_
*250 _205_
*251 _206_
*252 _207_
*253 _208_
*254 _209_
*255 _210_
*256 _211_
*257 _212_
*258 _213_
*259 _214_
*260 _215_
*261 _216_
*262 _217_
*263 _218_
*264 _219_
*265 _220_
*266 _221_
*267 _222_
*268 _223_
*269 _224_
*270 _225_
*271 _226_
*272 _227_
*273 _228_
*274 _229_
*275 _230_
*276 _231_
*277 _232_
*278 _233_
*279 _234_
*280 _235_
*281 _236_
*282 _237_
*283 _238_
*284 _239_
*285 _240_
*286 _241_
*287 _242_
*288 _243_
*289 _244_
*290 _245_
*291 _246_
*292 _247_
*293 _248_
*294 _249_
*295 _250_
*296 _251_
*297 _252_
*298 _253_
*299 _254_
*300 _255_
*301 _256_
*302 _257_
*303 _258_
*304 _259_
*305 _260_
*306 _261_
*307 _262_
*308 _263_
*309 _264_
*310 _265_
*311 _266_
*312 _267_
*313 _268_
*314 _269_
*315 _270_
*316 _271_
*317 _272_
*318 _273_
*319 _274_
*320 _275_
*321 _276_
*322 _277_
*323 _278_
*324 _279_
*325 _280_
*326 _281_
*327 _282_
*328 _283_
*329 _284_
*330 _285_
*331 _286_
*332 _287_
*333 _288_
*334 _289_
*335 _290_
*336 _291_
*337 _292_
*338 _293_
*339 _294_
*340 _295_
*341 _296_
*342 _297_
*343 _298_
*344 _299_
*345 _300_
*346 _301_
*347 _302_
*348 _303_
*349 _304_
*350 _305_
*351 _306_
*352 _307_
*353 _308_
*354 _309_
*355 _310_
*356 _311_
*357 _312_
*358 _313_
*359 _314_
*360 _315_
*361 _316_
*362 _317_
*363 _318_
*364 _319_
*365 _320_
*366 _321_
*367 _322_
*368 _323_
*369 _324_
*370 _325_
*371 _326_
*372 _327_
*373 _328_
*374 _329_
*375 _330_
*376 _331_
*377 _332_
*378 _333_
*379 _334_
*380 _335_
*381 _336_
*382 _337_
*383 _338_
*384 _339_
*385 _340_
*386 _341_
*387 _342_
*388 _343_
*389 _344_
*390 _345_
*391 _346_
*392 _347_
*393 _348_
*394 _349_
*395 _350_
*396 _351_
*397 _352_
*398 _353_
*399 _354_
*400 _355_
*401 _356_
*402 _357_
*403 _358_
*404 _359_
*405 _360_
*406 _361_
*407 _362_
*408 _363_
*409 _364_
*410 _365_
*411 _366_
*412 _367_
*413 _368_
*414 _369_
*415 _370_
*416 _371_
*417 _372_
*418 _373_
*419 _374_
*420 _375_
*421 _376_
*422 _377_
*423 _378_
*424 _379_
*425 _380_
*426 _381_
*427 _382_
*428 _383_
*429 _384_
*430 _385_
*431 _386_
*432 _387_
*433 _388_
*434 _389_
*435 _390_
*436 _391_
*437 _392_
*438 _393_
*439 _394_
*440 _395_
*441 _396_
*442 _397_
*443 _398_
*444 _399_
*445 _400_
*446 _401_
*447 _402_
*448 _403_
*449 _404_
*450 _405_
*451 _406_
*452 _407_
*453 _408_
*454 _409_
*455 _410_
*456 _411_
*457 _412_
*458 _413_
*459 _414_
*460 _415_
*461 _416_
*462 _417_
*463 _418_
*464 _419_
*465 _420_
*466 _421_
*467 _422_
*468 _423_
*469 _424_
*470 _425_
*471 _426_
*472 a\[0\]
*473 a\[10\]
*474 a\[11\]
*475 a\[12\]
*476 a\[13\]
*477 a\[14\]
*478 a\[15\]
*479 a\[16\]
*480 a\[17\]
*481 a\[18\]
*482 a\[19\]
*483 a\[1\]
*484 a\[20\]
*485 a\[21\]
*486 a\[22\]
*487 a\[23\]
*488 a\[24\]
*489 a\[25\]
*490 a\[26\]
*491 a\[27\]
*492 a\[28\]
*493 a\[29\]
*494 a\[2\]
*495 a\[30\]
*496 a\[31\]
*497 a\[3\]
*498 a\[4\]
*499 a\[5\]
*500 a\[6\]
*501 a\[7\]
*502 a\[8\]
*503 a\[9\]
*504 b\[0\]
*505 b\[10\]
*506 b\[11\]
*507 b\[12\]
*508 b\[13\]
*509 b\[14\]
*510 b\[15\]
*511 b\[16\]
*512 b\[17\]
*513 b\[18\]
*514 b\[19\]
*515 b\[1\]
*516 b\[20\]
*517 b\[21\]
*518 b\[22\]
*519 b\[23\]
*520 b\[24\]
*521 b\[25\]
*522 b\[26\]
*523 b\[27\]
*524 b\[28\]
*525 b\[29\]
*526 b\[2\]
*527 b\[30\]
*528 b\[31\]
*529 b\[3\]
*530 b\[4\]
*531 b\[5\]
*532 b\[6\]
*533 b\[7\]
*534 b\[8\]
*535 b\[9\]
*536 c1\[0\]
*537 c1\[1\]
*538 c1\[2\]
*539 c1\[3\]
*540 c1\[4\]
*541 c1\[5\]
*542 c1\[6\]
*543 c1\[7\]
*544 c\[0\]
*545 c\[1\]
*546 c\[2\]
*547 c\[3\]
*548 c\[4\]
*549 c\[5\]
*550 c\[6\]
*551 c\[7\]
*552 futuro\[0\]
*553 futuro\[1\]
*554 net1
*555 net10
*556 net11
*557 net12
*558 net13
*559 net14
*560 net15
*561 net16
*562 net17
*563 net18
*564 net19
*565 net2
*566 net20
*567 net21
*568 net22
*569 net23
*570 net24
*571 net25
*572 net26
*573 net27
*574 net28
*575 net29
*576 net3
*577 net30
*578 net31
*579 net32
*580 net33
*581 net34
*582 net35
*583 net36
*584 net37
*585 net38
*586 net39
*587 net4
*588 net40
*589 net41
*590 net42
*591 net5
*592 net6
*593 net7
*594 net8
*595 net9
*596 presente\[0\]
*597 presente\[1\]
*598 ANTENNA__428__A1
*599 ANTENNA__428__A2
*600 ANTENNA__430__I
*601 ANTENNA__436__A1
*602 ANTENNA__437__I
*603 ANTENNA__438__A1
*604 ANTENNA__438__A3
*605 ANTENNA__439__A1
*606 ANTENNA__439__A2
*607 ANTENNA__439__A4
*608 ANTENNA__440__A1
*609 ANTENNA__440__A2
*610 ANTENNA__440__A3
*611 ANTENNA__440__A4
*612 ANTENNA__442__A1
*613 ANTENNA__446__I
*614 ANTENNA__447__A1
*615 ANTENNA__447__A3
*616 ANTENNA__449__I
*617 ANTENNA__451__A1
*618 ANTENNA__451__A2
*619 ANTENNA__452__A1
*620 ANTENNA__453__A1
*621 ANTENNA__454__A1
*622 ANTENNA__454__A2
*623 ANTENNA__458__A1
*624 ANTENNA__458__A2
*625 ANTENNA__461__A1
*626 ANTENNA__463__A1
*627 ANTENNA__463__A3
*628 ANTENNA__464__A1
*629 ANTENNA__464__A2
*630 ANTENNA__466__A2
*631 ANTENNA__467__A2
*632 ANTENNA__469__A2
*633 ANTENNA__472__A1
*634 ANTENNA__472__A2
*635 ANTENNA__474__I
*636 ANTENNA__475__A3
*637 ANTENNA__476__B
*638 ANTENNA__480__A1
*639 ANTENNA__480__A2
*640 ANTENNA__482__I
*641 ANTENNA__483__A2
*642 ANTENNA__485__A2
*643 ANTENNA__487__A2
*644 ANTENNA__489__I
*645 ANTENNA__490__A2
*646 ANTENNA__492__A2
*647 ANTENNA__494__A2
*648 ANTENNA__496__A2
*649 ANTENNA__499__I
*650 ANTENNA__500__A2
*651 ANTENNA__502__A2
*652 ANTENNA__504__A2
*653 ANTENNA__506__A2
*654 ANTENNA__508__I
*655 ANTENNA__509__A2
*656 ANTENNA__511__A2
*657 ANTENNA__513__A2
*658 ANTENNA__515__A2
*659 ANTENNA__517__I
*660 ANTENNA__518__A2
*661 ANTENNA__521__A2
*662 ANTENNA__524__A2
*663 ANTENNA__526__A2
*664 ANTENNA__528__I
*665 ANTENNA__529__A2
*666 ANTENNA__531__A2
*667 ANTENNA__533__A2
*668 ANTENNA__536__A1
*669 ANTENNA__536__A2
*670 ANTENNA__538__I
*671 ANTENNA__539__A1
*672 ANTENNA__539__A2
*673 ANTENNA__541__A2
*674 ANTENNA__543__A2
*675 ANTENNA__545__A2
*676 ANTENNA__547__I
*677 ANTENNA__548__A2
*678 ANTENNA__550__A2
*679 ANTENNA__552__A2
*680 ANTENNA__554__A2
*681 ANTENNA__556__A2
*682 ANTENNA__558__A1
*683 ANTENNA__558__A2
*684 ANTENNA__560__I
*685 ANTENNA__561__I1
*686 ANTENNA__561__S
*687 ANTENNA__563__I1
*688 ANTENNA__563__S
*689 ANTENNA__565__I1
*690 ANTENNA__565__S
*691 ANTENNA__567__I1
*692 ANTENNA__567__S
*693 ANTENNA__569__I
*694 ANTENNA__570__I1
*695 ANTENNA__572__I0
*696 ANTENNA__574__I0
*697 ANTENNA__578__I
*698 ANTENNA__579__I0
*699 ANTENNA__579__S
*700 ANTENNA__581__S
*701 ANTENNA__583__I0
*702 ANTENNA__583__S
*703 ANTENNA__585__S
*704 ANTENNA__587__I
*705 ANTENNA__588__S
*706 ANTENNA__590__S
*707 ANTENNA__592__S
*708 ANTENNA__594__I0
*709 ANTENNA__594__S
*710 ANTENNA__598__I
*711 ANTENNA__599__S
*712 ANTENNA__602__S
*713 ANTENNA__604__S
*714 ANTENNA__606__S
*715 ANTENNA__608__I
*716 ANTENNA__609__S
*717 ANTENNA__611__S
*718 ANTENNA__614__S
*719 ANTENNA__616__I1
*720 ANTENNA__616__S
*721 ANTENNA__618__I
*722 ANTENNA__621__I0
*723 ANTENNA__623__I0
*724 ANTENNA__625__I0
*725 ANTENNA__625__I1
*726 ANTENNA__627__I
*727 ANTENNA__628__S
*728 ANTENNA__630__I0
*729 ANTENNA__630__I1
*730 ANTENNA__630__S
*731 ANTENNA__632__I0
*732 ANTENNA__632__I1
*733 ANTENNA__632__S
*734 ANTENNA__634__I0
*735 ANTENNA__634__I1
*736 ANTENNA__634__S
*737 ANTENNA__637__A1
*738 ANTENNA__641__I
*739 ANTENNA__642__B
*740 ANTENNA__647__A1
*741 ANTENNA__647__B
*742 ANTENNA__648__A1
*743 ANTENNA__651__A1
*744 ANTENNA__653__I
*745 ANTENNA__654__B
*746 ANTENNA__659__B1
*747 ANTENNA__662__A1
*748 ANTENNA__662__B
*749 ANTENNA__663__A1
*750 ANTENNA__664__I
*751 ANTENNA__665__A1
*752 ANTENNA__667__A1
*753 ANTENNA__668__A1
*754 ANTENNA__669__A1
*755 ANTENNA__671__A1
*756 ANTENNA__673__A1
*757 ANTENNA__675__B
*758 ANTENNA__679__A1
*759 ANTENNA__680__B
*760 ANTENNA__684__A1
*761 ANTENNA__687__A1
*762 ANTENNA__688__A1
*763 ANTENNA__689__A1
*764 ANTENNA__689__A2
*765 ANTENNA__690__A1
*766 ANTENNA__690__A2
*767 ANTENNA__690__B
*768 ANTENNA__695__A1
*769 ANTENNA__696__A1
*770 ANTENNA__697__A1
*771 ANTENNA__698__I
*772 ANTENNA__699__A1
*773 ANTENNA__700__B
*774 ANTENNA__705__A1
*775 ANTENNA__706__A1
*776 ANTENNA__708__I
*777 ANTENNA__709__B
*778 ANTENNA__712__B
*779 ANTENNA__715__A1
*780 ANTENNA__716__A1
*781 ANTENNA__717__A1
*782 ANTENNA__718__A1
*783 ANTENNA__722__A1
*784 ANTENNA__727__B
*785 ANTENNA__736__A1
*786 ANTENNA__738__A1
*787 ANTENNA__741__A1
*788 ANTENNA__745__A1
*789 ANTENNA__746__A1
*790 ANTENNA__747__A1
*791 ANTENNA__749__A1
*792 ANTENNA__750__A1
*793 ANTENNA__751__I
*794 ANTENNA__753__A1
*795 ANTENNA__753__B
*796 ANTENNA__754__A1
*797 ANTENNA__756__A1
*798 ANTENNA__759__A1
*799 ANTENNA__765__B
*800 ANTENNA__771__A1
*801 ANTENNA__781__A1
*802 ANTENNA__782__A1
*803 ANTENNA__782__A2
*804 ANTENNA__783__I
*805 ANTENNA__784__A2
*806 ANTENNA__784__B
*807 ANTENNA__785__A2
*808 ANTENNA__786__I
*809 ANTENNA__789__A2
*810 ANTENNA__791__A1
*811 ANTENNA__797__A1
*812 ANTENNA__797__A2
*813 ANTENNA__799__A1
*814 ANTENNA__800__A2
*815 ANTENNA__801__A2
*816 ANTENNA__802__A2
*817 ANTENNA__804__B
*818 ANTENNA__806__A2
*819 ANTENNA__808__A1
*820 ANTENNA__808__B
*821 ANTENNA__809__A2
*822 ANTENNA__810__A2
*823 ANTENNA__810__B2
*824 ANTENNA__811__A2
*825 ANTENNA__812__A1
*826 ANTENNA__812__A2
*827 ANTENNA__814__A1
*828 ANTENNA__814__B
*829 ANTENNA__815__A1
*830 ANTENNA__816__A1
*831 ANTENNA__817__A1
*832 ANTENNA__821__A1
*833 ANTENNA__823__B
*834 ANTENNA__825__A1
*835 ANTENNA__827__A1
*836 ANTENNA__830__A1
*837 ANTENNA__832__A1
*838 ANTENNA__833__A1
*839 ANTENNA__836__A1
*840 ANTENNA__841__A1
*841 ANTENNA__842__A1
*842 ANTENNA__844__A1
*843 ANTENNA__846__A1
*844 ANTENNA__846__B
*845 ANTENNA__847__A1
*846 ANTENNA__848__A1
*847 ANTENNA__850__A1
*848 ANTENNA__852__A1
*849 ANTENNA__853__A1
*850 ANTENNA__854__A1
*851 ANTENNA__856__A1
*852 ANTENNA__857__B2
*853 ANTENNA__858__B
*854 ANTENNA__860__A1
*855 ANTENNA__862__A1
*856 ANTENNA__863__A1
*857 ANTENNA__864__CLK
*858 ANTENNA__865__CLK
*859 ANTENNA__866__CLK
*860 ANTENNA__867__CLK
*861 ANTENNA__868__CLK
*862 ANTENNA__869__CLK
*863 ANTENNA__870__CLK
*864 ANTENNA__871__CLK
*865 ANTENNA__872__CLK
*866 ANTENNA__873__CLK
*867 ANTENNA__874__CLK
*868 ANTENNA__875__CLK
*869 ANTENNA__876__CLK
*870 ANTENNA__877__CLK
*871 ANTENNA__878__CLK
*872 ANTENNA__879__CLK
*873 ANTENNA__880__CLK
*874 ANTENNA__881__CLK
*875 ANTENNA__882__CLK
*876 ANTENNA__883__CLK
*877 ANTENNA__884__CLK
*878 ANTENNA__885__CLK
*879 ANTENNA__886__CLK
*880 ANTENNA__887__CLK
*881 ANTENNA__888__CLK
*882 ANTENNA__889__CLK
*883 ANTENNA__890__CLK
*884 ANTENNA__891__CLK
*885 ANTENNA__892__CLK
*886 ANTENNA__893__CLK
*887 ANTENNA__894__CLK
*888 ANTENNA__895__CLK
*889 ANTENNA__896__CLK
*890 ANTENNA__897__CLK
*891 ANTENNA__898__CLK
*892 ANTENNA__899__CLK
*893 ANTENNA__900__CLK
*894 ANTENNA__901__CLK
*895 ANTENNA__902__CLK
*896 ANTENNA__903__CLK
*897 ANTENNA__904__CLK
*898 ANTENNA__905__CLK
*899 ANTENNA__906__CLK
*900 ANTENNA__907__CLK
*901 ANTENNA__908__CLK
*902 ANTENNA__909__CLK
*903 ANTENNA__910__CLK
*904 ANTENNA__911__CLK
*905 ANTENNA__912__CLK
*906 ANTENNA__913__CLK
*907 ANTENNA__914__CLK
*908 ANTENNA__915__CLK
*909 ANTENNA__916__CLK
*910 ANTENNA__917__CLK
*911 ANTENNA__918__CLK
*912 ANTENNA__919__CLK
*913 ANTENNA__920__CLK
*914 ANTENNA__921__CLK
*915 ANTENNA__922__CLK
*916 ANTENNA__923__CLK
*917 ANTENNA__924__CLK
*918 ANTENNA__925__CLK
*919 ANTENNA__926__CLK
*920 ANTENNA__927__CLK
*921 ANTENNA__928__CLK
*922 ANTENNA__929__CLK
*923 ANTENNA__930__CLK
*924 ANTENNA__931__CLK
*925 ANTENNA__932__CLK
*926 ANTENNA__933__CLK
*927 ANTENNA__934__CLK
*928 ANTENNA__935__CLK
*929 ANTENNA__936__CLK
*930 ANTENNA__937__CLK
*931 ANTENNA__938__CLK
*932 ANTENNA__939__CLK
*933 ANTENNA__940__CLK
*934 ANTENNA__941__CLK
*935 ANTENNA__942__CLK
*936 ANTENNA__943__CLK
*937 ANTENNA__944__CLK
*938 ANTENNA__945__CLK
*939 ANTENNA__946__CLK
*940 ANTENNA__947__CLK
*941 ANTENNA__948__CLK
*942 ANTENNA__949__CLK
*943 ANTENNA__950__CLK
*944 ANTENNA__951__CLK
*945 ANTENNA__952__CLK
*946 ANTENNA__953__CLK
*947 ANTENNA__954__CLK
*948 ANTENNA__955__CLK
*949 ANTENNA__956__CLK
*950 ANTENNA__957__CLK
*951 ANTENNA__958__CLK
*952 ANTENNA__959__CLK
*953 ANTENNA__960__CLK
*954 ANTENNA__961__CLK
*955 ANTENNA__962__CLK
*956 ANTENNA__963__CLK
*957 ANTENNA__964__CLK
*958 ANTENNA__965__CLK
*959 ANTENNA__966__CLK
*960 ANTENNA__967__CLK
*961 ANTENNA__968__CLK
*962 ANTENNA__969__CLK
*963 ANTENNA_input10_I
*964 ANTENNA_input1_I
*965 ANTENNA_input2_I
*966 ANTENNA_input3_I
*967 ANTENNA_input4_I
*968 ANTENNA_input5_I
*969 ANTENNA_input6_I
*970 ANTENNA_input7_I
*971 ANTENNA_input8_I
*972 ANTENNA_input9_I
*973 ANTENNA_output11_I
*974 ANTENNA_output22_I
*975 ANTENNA_output26_I
*976 ANTENNA_output30_I
*977 ANTENNA_output32_I
*978 ANTENNA_output33_I
*979 ANTENNA_output34_I
*980 ANTENNA_output35_I
*981 ANTENNA_output36_I
*982 ANTENNA_output37_I
*983 FILLER_0_1014
*984 FILLER_0_1017
*985 FILLER_0_1025
*986 FILLER_0_1027
*987 FILLER_0_103
*988 FILLER_0_1030
*989 FILLER_0_1038
*990 FILLER_0_1046
*991 FILLER_0_1052
*992 FILLER_0_107
*993 FILLER_0_1084
*994 FILLER_0_1087
*995 FILLER_0_1119
*996 FILLER_0_1122
*997 FILLER_0_1154
*998 FILLER_0_1157
*999 FILLER_0_1173
*1000 FILLER_0_1181
*1001 FILLER_0_1185
*1002 FILLER_0_1189
*1003 FILLER_0_1192
*1004 FILLER_0_1199
*1005 FILLER_0_1215
*1006 FILLER_0_1223
*1007 FILLER_0_1227
*1008 FILLER_0_1259
*1009 FILLER_0_1262
*1010 FILLER_0_1294
*1011 FILLER_0_1297
*1012 FILLER_0_1329
*1013 FILLER_0_1332
*1014 FILLER_0_1364
*1015 FILLER_0_1367
*1016 FILLER_0_139
*1017 FILLER_0_1399
*1018 FILLER_0_1402
*1019 FILLER_0_142
*1020 FILLER_0_1434
*1021 FILLER_0_1437
*1022 FILLER_0_1469
*1023 FILLER_0_1472
*1024 FILLER_0_1504
*1025 FILLER_0_1507
*1026 FILLER_0_1510
*1027 FILLER_0_1518
*1028 FILLER_0_1534
*1029 FILLER_0_1538
*1030 FILLER_0_1542
*1031 FILLER_0_1574
*1032 FILLER_0_1577
*1033 FILLER_0_174
*1034 FILLER_0_177
*1035 FILLER_0_2
*1036 FILLER_0_209
*1037 FILLER_0_212
*1038 FILLER_0_230
*1039 FILLER_0_238
*1040 FILLER_0_242
*1041 FILLER_0_244
*1042 FILLER_0_247
*1043 FILLER_0_279
*1044 FILLER_0_282
*1045 FILLER_0_314
*1046 FILLER_0_317
*1047 FILLER_0_34
*1048 FILLER_0_349
*1049 FILLER_0_352
*1050 FILLER_0_37
*1051 FILLER_0_384
*1052 FILLER_0_387
*1053 FILLER_0_390
*1054 FILLER_0_398
*1055 FILLER_0_414
*1056 FILLER_0_418
*1057 FILLER_0_422
*1058 FILLER_0_454
*1059 FILLER_0_457
*1060 FILLER_0_489
*1061 FILLER_0_492
*1062 FILLER_0_524
*1063 FILLER_0_527
*1064 FILLER_0_53
*1065 FILLER_0_543
*1066 FILLER_0_547
*1067 FILLER_0_550
*1068 FILLER_0_558
*1069 FILLER_0_562
*1070 FILLER_0_594
*1071 FILLER_0_597
*1072 FILLER_0_61
*1073 FILLER_0_629
*1074 FILLER_0_632
*1075 FILLER_0_65
*1076 FILLER_0_664
*1077 FILLER_0_667
*1078 FILLER_0_675
*1079 FILLER_0_679
*1080 FILLER_0_683
*1081 FILLER_0_687
*1082 FILLER_0_69
*1083 FILLER_0_691
*1084 FILLER_0_695
*1085 FILLER_0_699
*1086 FILLER_0_702
*1087 FILLER_0_708
*1088 FILLER_0_710
*1089 FILLER_0_717
*1090 FILLER_0_72
*1091 FILLER_0_729
*1092 FILLER_0_731
*1093 FILLER_0_734
*1094 FILLER_0_737
*1095 FILLER_0_743
*1096 FILLER_0_751
*1097 FILLER_0_755
*1098 FILLER_0_759
*1099 FILLER_0_763
*1100 FILLER_0_765
*1101 FILLER_0_768
*1102 FILLER_0_772
*1103 FILLER_0_79
*1104 FILLER_0_802
*1105 FILLER_0_804
*1106 FILLER_0_807
*1107 FILLER_0_810
*1108 FILLER_0_826
*1109 FILLER_0_834
*1110 FILLER_0_838
*1111 FILLER_0_842
*1112 FILLER_0_858
*1113 FILLER_0_866
*1114 FILLER_0_870
*1115 FILLER_0_874
*1116 FILLER_0_877
*1117 FILLER_0_884
*1118 FILLER_0_900
*1119 FILLER_0_908
*1120 FILLER_0_912
*1121 FILLER_0_944
*1122 FILLER_0_947
*1123 FILLER_0_95
*1124 FILLER_0_979
*1125 FILLER_0_982
*1126 FILLER_100_101
*1127 FILLER_100_1024
*1128 FILLER_100_1028
*1129 FILLER_100_1031
*1130 FILLER_100_105
*1131 FILLER_100_108
*1132 FILLER_100_1095
*1133 FILLER_100_1099
*1134 FILLER_100_1102
*1135 FILLER_100_1166
*1136 FILLER_100_1170
*1137 FILLER_100_1173
*1138 FILLER_100_1237
*1139 FILLER_100_1241
*1140 FILLER_100_1244
*1141 FILLER_100_1308
*1142 FILLER_100_1312
*1143 FILLER_100_1315
*1144 FILLER_100_1379
*1145 FILLER_100_1383
*1146 FILLER_100_1386
*1147 FILLER_100_1450
*1148 FILLER_100_1454
*1149 FILLER_100_1457
*1150 FILLER_100_1521
*1151 FILLER_100_1525
*1152 FILLER_100_1528
*1153 FILLER_100_1560
*1154 FILLER_100_1576
*1155 FILLER_100_1580
*1156 FILLER_100_172
*1157 FILLER_100_176
*1158 FILLER_100_179
*1159 FILLER_100_2
*1160 FILLER_100_243
*1161 FILLER_100_247
*1162 FILLER_100_250
*1163 FILLER_100_314
*1164 FILLER_100_318
*1165 FILLER_100_321
*1166 FILLER_100_34
*1167 FILLER_100_37
*1168 FILLER_100_385
*1169 FILLER_100_389
*1170 FILLER_100_392
*1171 FILLER_100_456
*1172 FILLER_100_460
*1173 FILLER_100_463
*1174 FILLER_100_527
*1175 FILLER_100_531
*1176 FILLER_100_534
*1177 FILLER_100_598
*1178 FILLER_100_602
*1179 FILLER_100_605
*1180 FILLER_100_669
*1181 FILLER_100_673
*1182 FILLER_100_676
*1183 FILLER_100_740
*1184 FILLER_100_744
*1185 FILLER_100_747
*1186 FILLER_100_811
*1187 FILLER_100_815
*1188 FILLER_100_818
*1189 FILLER_100_882
*1190 FILLER_100_886
*1191 FILLER_100_889
*1192 FILLER_100_953
*1193 FILLER_100_957
*1194 FILLER_100_960
*1195 FILLER_101_1060
*1196 FILLER_101_1064
*1197 FILLER_101_1067
*1198 FILLER_101_1131
*1199 FILLER_101_1135
*1200 FILLER_101_1138
*1201 FILLER_101_1202
*1202 FILLER_101_1206
*1203 FILLER_101_1209
*1204 FILLER_101_1273
*1205 FILLER_101_1277
*1206 FILLER_101_1280
*1207 FILLER_101_1344
*1208 FILLER_101_1348
*1209 FILLER_101_1351
*1210 FILLER_101_137
*1211 FILLER_101_141
*1212 FILLER_101_1415
*1213 FILLER_101_1419
*1214 FILLER_101_1422
*1215 FILLER_101_144
*1216 FILLER_101_1486
*1217 FILLER_101_1490
*1218 FILLER_101_1493
*1219 FILLER_101_1557
*1220 FILLER_101_1561
*1221 FILLER_101_1564
*1222 FILLER_101_1580
*1223 FILLER_101_2
*1224 FILLER_101_208
*1225 FILLER_101_212
*1226 FILLER_101_215
*1227 FILLER_101_279
*1228 FILLER_101_283
*1229 FILLER_101_286
*1230 FILLER_101_350
*1231 FILLER_101_354
*1232 FILLER_101_357
*1233 FILLER_101_421
*1234 FILLER_101_425
*1235 FILLER_101_428
*1236 FILLER_101_492
*1237 FILLER_101_496
*1238 FILLER_101_499
*1239 FILLER_101_563
*1240 FILLER_101_567
*1241 FILLER_101_570
*1242 FILLER_101_634
*1243 FILLER_101_638
*1244 FILLER_101_641
*1245 FILLER_101_66
*1246 FILLER_101_70
*1247 FILLER_101_705
*1248 FILLER_101_709
*1249 FILLER_101_712
*1250 FILLER_101_73
*1251 FILLER_101_776
*1252 FILLER_101_780
*1253 FILLER_101_783
*1254 FILLER_101_847
*1255 FILLER_101_851
*1256 FILLER_101_854
*1257 FILLER_101_918
*1258 FILLER_101_922
*1259 FILLER_101_925
*1260 FILLER_101_989
*1261 FILLER_101_993
*1262 FILLER_101_996
*1263 FILLER_102_101
*1264 FILLER_102_1024
*1265 FILLER_102_1028
*1266 FILLER_102_1031
*1267 FILLER_102_105
*1268 FILLER_102_108
*1269 FILLER_102_1095
*1270 FILLER_102_1099
*1271 FILLER_102_1102
*1272 FILLER_102_1166
*1273 FILLER_102_1170
*1274 FILLER_102_1173
*1275 FILLER_102_1237
*1276 FILLER_102_1241
*1277 FILLER_102_1244
*1278 FILLER_102_1308
*1279 FILLER_102_1312
*1280 FILLER_102_1315
*1281 FILLER_102_1379
*1282 FILLER_102_1383
*1283 FILLER_102_1386
*1284 FILLER_102_1450
*1285 FILLER_102_1454
*1286 FILLER_102_1457
*1287 FILLER_102_1521
*1288 FILLER_102_1525
*1289 FILLER_102_1528
*1290 FILLER_102_1560
*1291 FILLER_102_1576
*1292 FILLER_102_1580
*1293 FILLER_102_172
*1294 FILLER_102_176
*1295 FILLER_102_179
*1296 FILLER_102_2
*1297 FILLER_102_243
*1298 FILLER_102_247
*1299 FILLER_102_250
*1300 FILLER_102_314
*1301 FILLER_102_318
*1302 FILLER_102_321
*1303 FILLER_102_34
*1304 FILLER_102_37
*1305 FILLER_102_385
*1306 FILLER_102_389
*1307 FILLER_102_392
*1308 FILLER_102_456
*1309 FILLER_102_460
*1310 FILLER_102_463
*1311 FILLER_102_527
*1312 FILLER_102_531
*1313 FILLER_102_534
*1314 FILLER_102_598
*1315 FILLER_102_602
*1316 FILLER_102_605
*1317 FILLER_102_669
*1318 FILLER_102_673
*1319 FILLER_102_676
*1320 FILLER_102_740
*1321 FILLER_102_744
*1322 FILLER_102_747
*1323 FILLER_102_811
*1324 FILLER_102_815
*1325 FILLER_102_818
*1326 FILLER_102_882
*1327 FILLER_102_886
*1328 FILLER_102_889
*1329 FILLER_102_953
*1330 FILLER_102_957
*1331 FILLER_102_960
*1332 FILLER_103_1060
*1333 FILLER_103_1064
*1334 FILLER_103_1067
*1335 FILLER_103_1131
*1336 FILLER_103_1135
*1337 FILLER_103_1138
*1338 FILLER_103_1202
*1339 FILLER_103_1206
*1340 FILLER_103_1209
*1341 FILLER_103_1273
*1342 FILLER_103_1277
*1343 FILLER_103_1280
*1344 FILLER_103_1344
*1345 FILLER_103_1348
*1346 FILLER_103_1351
*1347 FILLER_103_137
*1348 FILLER_103_141
*1349 FILLER_103_1415
*1350 FILLER_103_1419
*1351 FILLER_103_1422
*1352 FILLER_103_144
*1353 FILLER_103_1486
*1354 FILLER_103_1490
*1355 FILLER_103_1493
*1356 FILLER_103_1557
*1357 FILLER_103_1561
*1358 FILLER_103_1564
*1359 FILLER_103_1580
*1360 FILLER_103_2
*1361 FILLER_103_208
*1362 FILLER_103_212
*1363 FILLER_103_215
*1364 FILLER_103_279
*1365 FILLER_103_283
*1366 FILLER_103_286
*1367 FILLER_103_350
*1368 FILLER_103_354
*1369 FILLER_103_357
*1370 FILLER_103_421
*1371 FILLER_103_425
*1372 FILLER_103_428
*1373 FILLER_103_492
*1374 FILLER_103_496
*1375 FILLER_103_499
*1376 FILLER_103_563
*1377 FILLER_103_567
*1378 FILLER_103_570
*1379 FILLER_103_634
*1380 FILLER_103_638
*1381 FILLER_103_641
*1382 FILLER_103_66
*1383 FILLER_103_70
*1384 FILLER_103_705
*1385 FILLER_103_709
*1386 FILLER_103_712
*1387 FILLER_103_73
*1388 FILLER_103_776
*1389 FILLER_103_780
*1390 FILLER_103_783
*1391 FILLER_103_847
*1392 FILLER_103_851
*1393 FILLER_103_854
*1394 FILLER_103_918
*1395 FILLER_103_922
*1396 FILLER_103_925
*1397 FILLER_103_989
*1398 FILLER_103_993
*1399 FILLER_103_996
*1400 FILLER_104_101
*1401 FILLER_104_1024
*1402 FILLER_104_1028
*1403 FILLER_104_1031
*1404 FILLER_104_105
*1405 FILLER_104_108
*1406 FILLER_104_1095
*1407 FILLER_104_1099
*1408 FILLER_104_1102
*1409 FILLER_104_1166
*1410 FILLER_104_1170
*1411 FILLER_104_1173
*1412 FILLER_104_1237
*1413 FILLER_104_1241
*1414 FILLER_104_1244
*1415 FILLER_104_1308
*1416 FILLER_104_1312
*1417 FILLER_104_1315
*1418 FILLER_104_1379
*1419 FILLER_104_1383
*1420 FILLER_104_1386
*1421 FILLER_104_1450
*1422 FILLER_104_1454
*1423 FILLER_104_1457
*1424 FILLER_104_1521
*1425 FILLER_104_1525
*1426 FILLER_104_1528
*1427 FILLER_104_1560
*1428 FILLER_104_1576
*1429 FILLER_104_1580
*1430 FILLER_104_172
*1431 FILLER_104_176
*1432 FILLER_104_179
*1433 FILLER_104_2
*1434 FILLER_104_243
*1435 FILLER_104_247
*1436 FILLER_104_250
*1437 FILLER_104_314
*1438 FILLER_104_318
*1439 FILLER_104_321
*1440 FILLER_104_34
*1441 FILLER_104_37
*1442 FILLER_104_385
*1443 FILLER_104_389
*1444 FILLER_104_392
*1445 FILLER_104_456
*1446 FILLER_104_460
*1447 FILLER_104_463
*1448 FILLER_104_527
*1449 FILLER_104_531
*1450 FILLER_104_534
*1451 FILLER_104_598
*1452 FILLER_104_602
*1453 FILLER_104_605
*1454 FILLER_104_669
*1455 FILLER_104_673
*1456 FILLER_104_676
*1457 FILLER_104_740
*1458 FILLER_104_744
*1459 FILLER_104_747
*1460 FILLER_104_811
*1461 FILLER_104_815
*1462 FILLER_104_818
*1463 FILLER_104_882
*1464 FILLER_104_886
*1465 FILLER_104_889
*1466 FILLER_104_953
*1467 FILLER_104_957
*1468 FILLER_104_960
*1469 FILLER_105_1060
*1470 FILLER_105_1064
*1471 FILLER_105_1067
*1472 FILLER_105_1131
*1473 FILLER_105_1135
*1474 FILLER_105_1138
*1475 FILLER_105_1202
*1476 FILLER_105_1206
*1477 FILLER_105_1209
*1478 FILLER_105_1273
*1479 FILLER_105_1277
*1480 FILLER_105_1280
*1481 FILLER_105_1344
*1482 FILLER_105_1348
*1483 FILLER_105_1351
*1484 FILLER_105_137
*1485 FILLER_105_141
*1486 FILLER_105_1415
*1487 FILLER_105_1419
*1488 FILLER_105_1422
*1489 FILLER_105_144
*1490 FILLER_105_1486
*1491 FILLER_105_1490
*1492 FILLER_105_1493
*1493 FILLER_105_1557
*1494 FILLER_105_1561
*1495 FILLER_105_1564
*1496 FILLER_105_1580
*1497 FILLER_105_2
*1498 FILLER_105_208
*1499 FILLER_105_212
*1500 FILLER_105_215
*1501 FILLER_105_279
*1502 FILLER_105_283
*1503 FILLER_105_286
*1504 FILLER_105_350
*1505 FILLER_105_354
*1506 FILLER_105_357
*1507 FILLER_105_421
*1508 FILLER_105_425
*1509 FILLER_105_428
*1510 FILLER_105_492
*1511 FILLER_105_496
*1512 FILLER_105_499
*1513 FILLER_105_563
*1514 FILLER_105_567
*1515 FILLER_105_570
*1516 FILLER_105_634
*1517 FILLER_105_638
*1518 FILLER_105_641
*1519 FILLER_105_66
*1520 FILLER_105_70
*1521 FILLER_105_705
*1522 FILLER_105_709
*1523 FILLER_105_712
*1524 FILLER_105_73
*1525 FILLER_105_776
*1526 FILLER_105_780
*1527 FILLER_105_783
*1528 FILLER_105_847
*1529 FILLER_105_851
*1530 FILLER_105_854
*1531 FILLER_105_918
*1532 FILLER_105_922
*1533 FILLER_105_925
*1534 FILLER_105_989
*1535 FILLER_105_993
*1536 FILLER_105_996
*1537 FILLER_106_101
*1538 FILLER_106_1024
*1539 FILLER_106_1028
*1540 FILLER_106_1031
*1541 FILLER_106_105
*1542 FILLER_106_108
*1543 FILLER_106_1095
*1544 FILLER_106_1099
*1545 FILLER_106_1102
*1546 FILLER_106_1166
*1547 FILLER_106_1170
*1548 FILLER_106_1173
*1549 FILLER_106_1237
*1550 FILLER_106_1241
*1551 FILLER_106_1244
*1552 FILLER_106_1308
*1553 FILLER_106_1312
*1554 FILLER_106_1315
*1555 FILLER_106_1379
*1556 FILLER_106_1383
*1557 FILLER_106_1386
*1558 FILLER_106_1450
*1559 FILLER_106_1454
*1560 FILLER_106_1457
*1561 FILLER_106_1521
*1562 FILLER_106_1525
*1563 FILLER_106_1528
*1564 FILLER_106_1560
*1565 FILLER_106_1576
*1566 FILLER_106_1580
*1567 FILLER_106_172
*1568 FILLER_106_176
*1569 FILLER_106_179
*1570 FILLER_106_2
*1571 FILLER_106_243
*1572 FILLER_106_247
*1573 FILLER_106_250
*1574 FILLER_106_314
*1575 FILLER_106_318
*1576 FILLER_106_321
*1577 FILLER_106_34
*1578 FILLER_106_37
*1579 FILLER_106_385
*1580 FILLER_106_389
*1581 FILLER_106_392
*1582 FILLER_106_456
*1583 FILLER_106_460
*1584 FILLER_106_463
*1585 FILLER_106_527
*1586 FILLER_106_531
*1587 FILLER_106_534
*1588 FILLER_106_598
*1589 FILLER_106_602
*1590 FILLER_106_605
*1591 FILLER_106_669
*1592 FILLER_106_673
*1593 FILLER_106_676
*1594 FILLER_106_740
*1595 FILLER_106_744
*1596 FILLER_106_747
*1597 FILLER_106_811
*1598 FILLER_106_815
*1599 FILLER_106_818
*1600 FILLER_106_882
*1601 FILLER_106_886
*1602 FILLER_106_889
*1603 FILLER_106_953
*1604 FILLER_106_957
*1605 FILLER_106_960
*1606 FILLER_107_1060
*1607 FILLER_107_1064
*1608 FILLER_107_1067
*1609 FILLER_107_1131
*1610 FILLER_107_1135
*1611 FILLER_107_1138
*1612 FILLER_107_1202
*1613 FILLER_107_1206
*1614 FILLER_107_1209
*1615 FILLER_107_1273
*1616 FILLER_107_1277
*1617 FILLER_107_1280
*1618 FILLER_107_1344
*1619 FILLER_107_1348
*1620 FILLER_107_1351
*1621 FILLER_107_137
*1622 FILLER_107_141
*1623 FILLER_107_1415
*1624 FILLER_107_1419
*1625 FILLER_107_1422
*1626 FILLER_107_144
*1627 FILLER_107_1486
*1628 FILLER_107_1490
*1629 FILLER_107_1493
*1630 FILLER_107_1557
*1631 FILLER_107_1561
*1632 FILLER_107_1564
*1633 FILLER_107_1580
*1634 FILLER_107_2
*1635 FILLER_107_208
*1636 FILLER_107_212
*1637 FILLER_107_215
*1638 FILLER_107_279
*1639 FILLER_107_283
*1640 FILLER_107_286
*1641 FILLER_107_350
*1642 FILLER_107_354
*1643 FILLER_107_357
*1644 FILLER_107_421
*1645 FILLER_107_425
*1646 FILLER_107_428
*1647 FILLER_107_492
*1648 FILLER_107_496
*1649 FILLER_107_499
*1650 FILLER_107_563
*1651 FILLER_107_567
*1652 FILLER_107_570
*1653 FILLER_107_634
*1654 FILLER_107_638
*1655 FILLER_107_641
*1656 FILLER_107_66
*1657 FILLER_107_70
*1658 FILLER_107_705
*1659 FILLER_107_709
*1660 FILLER_107_712
*1661 FILLER_107_73
*1662 FILLER_107_776
*1663 FILLER_107_780
*1664 FILLER_107_783
*1665 FILLER_107_847
*1666 FILLER_107_851
*1667 FILLER_107_854
*1668 FILLER_107_918
*1669 FILLER_107_922
*1670 FILLER_107_925
*1671 FILLER_107_989
*1672 FILLER_107_993
*1673 FILLER_107_996
*1674 FILLER_108_101
*1675 FILLER_108_1024
*1676 FILLER_108_1028
*1677 FILLER_108_1031
*1678 FILLER_108_105
*1679 FILLER_108_108
*1680 FILLER_108_1095