*SPEF "ieee 1481-1999"
*DESIGN "user_project_wrapper"
*DATE "11:11:11 Fri 11 11, 1111"
*VENDOR "OpenRCX"
*PROGRAM "Parallel Extraction"
*VERSION "1.0"
*DESIGN_FLOW "NAME_SCOPE LOCAL" "PIN_CAP NONE"
*DIVIDER /
*DELIMITER :
*BUS_DELIMITER []
*T_UNIT 1 NS
*C_UNIT 1 PF
*R_UNIT 1 OHM
*L_UNIT 1 HENRY

*NAME_MAP
*1 io_in[0]
*2 io_in[10]
*3 io_in[11]
*4 io_in[12]
*5 io_in[13]
*6 io_in[14]
*7 io_in[15]
*8 io_in[16]
*9 io_in[17]
*10 io_in[18]
*11 io_in[19]
*12 io_in[1]
*13 io_in[20]
*14 io_in[21]
*15 io_in[22]
*16 io_in[23]
*17 io_in[24]
*18 io_in[25]
*19 io_in[26]
*20 io_in[27]
*21 io_in[28]
*22 io_in[29]
*23 io_in[2]
*24 io_in[30]
*25 io_in[31]
*26 io_in[32]
*27 io_in[33]
*28 io_in[34]
*29 io_in[35]
*30 io_in[36]
*31 io_in[37]
*32 io_in[3]
*33 io_in[4]
*34 io_in[5]
*35 io_in[6]
*36 io_in[7]
*37 io_in[8]
*38 io_in[9]
*39 io_oeb[0]
*40 io_oeb[10]
*41 io_oeb[11]
*42 io_oeb[12]
*43 io_oeb[13]
*44 io_oeb[14]
*45 io_oeb[15]
*46 io_oeb[16]
*47 io_oeb[17]
*48 io_oeb[18]
*49 io_oeb[19]
*50 io_oeb[1]
*51 io_oeb[20]
*52 io_oeb[21]
*53 io_oeb[22]
*54 io_oeb[23]
*55 io_oeb[24]
*56 io_oeb[25]
*57 io_oeb[26]
*58 io_oeb[27]
*59 io_oeb[28]
*60 io_oeb[29]
*61 io_oeb[2]
*62 io_oeb[30]
*63 io_oeb[31]
*64 io_oeb[32]
*65 io_oeb[33]
*66 io_oeb[34]
*67 io_oeb[35]
*68 io_oeb[36]
*69 io_oeb[37]
*70 io_oeb[3]
*71 io_oeb[4]
*72 io_oeb[5]
*73 io_oeb[6]
*74 io_oeb[7]
*75 io_oeb[8]
*76 io_oeb[9]
*77 io_out[0]
*78 io_out[10]
*79 io_out[11]
*80 io_out[12]
*81 io_out[13]
*82 io_out[14]
*83 io_out[15]
*84 io_out[16]
*85 io_out[17]
*86 io_out[18]
*87 io_out[19]
*88 io_out[1]
*89 io_out[20]
*90 io_out[21]
*91 io_out[22]
*92 io_out[23]
*93 io_out[24]
*94 io_out[25]
*95 io_out[26]
*96 io_out[27]
*97 io_out[28]
*98 io_out[29]
*99 io_out[2]
*100 io_out[30]
*101 io_out[31]
*102 io_out[32]
*103 io_out[33]
*104 io_out[34]
*105 io_out[35]
*106 io_out[36]
*107 io_out[37]
*108 io_out[3]
*109 io_out[4]
*110 io_out[5]
*111 io_out[6]
*112 io_out[7]
*113 io_out[8]
*114 io_out[9]
*115 la_data_in[0]
*116 la_data_in[10]
*117 la_data_in[11]
*118 la_data_in[12]
*119 la_data_in[13]
*120 la_data_in[14]
*121 la_data_in[15]
*122 la_data_in[16]
*123 la_data_in[17]
*124 la_data_in[18]
*125 la_data_in[19]
*126 la_data_in[1]
*127 la_data_in[20]
*128 la_data_in[21]
*129 la_data_in[22]
*130 la_data_in[23]
*131 la_data_in[24]
*132 la_data_in[25]
*133 la_data_in[26]
*134 la_data_in[27]
*135 la_data_in[28]
*136 la_data_in[29]
*137 la_data_in[2]
*138 la_data_in[30]
*139 la_data_in[31]
*140 la_data_in[32]
*141 la_data_in[33]
*142 la_data_in[34]
*143 la_data_in[35]
*144 la_data_in[36]
*145 la_data_in[37]
*146 la_data_in[38]
*147 la_data_in[39]
*148 la_data_in[3]
*149 la_data_in[40]
*150 la_data_in[41]
*151 la_data_in[42]
*152 la_data_in[43]
*153 la_data_in[44]
*154 la_data_in[45]
*155 la_data_in[46]
*156 la_data_in[47]
*157 la_data_in[48]
*158 la_data_in[49]
*159 la_data_in[4]
*160 la_data_in[50]
*161 la_data_in[51]
*162 la_data_in[52]
*163 la_data_in[53]
*164 la_data_in[54]
*165 la_data_in[55]
*166 la_data_in[56]
*167 la_data_in[57]
*168 la_data_in[58]
*169 la_data_in[59]
*170 la_data_in[5]
*171 la_data_in[60]
*172 la_data_in[61]
*173 la_data_in[62]
*174 la_data_in[63]
*175 la_data_in[6]
*176 la_data_in[7]
*177 la_data_in[8]
*178 la_data_in[9]
*179 la_data_out[0]
*180 la_data_out[10]
*181 la_data_out[11]
*182 la_data_out[12]
*183 la_data_out[13]
*184 la_data_out[14]
*185 la_data_out[15]
*186 la_data_out[16]
*187 la_data_out[17]
*188 la_data_out[18]
*189 la_data_out[19]
*190 la_data_out[1]
*191 la_data_out[20]
*192 la_data_out[21]
*193 la_data_out[22]
*194 la_data_out[23]
*195 la_data_out[24]
*196 la_data_out[25]
*197 la_data_out[26]
*198 la_data_out[27]
*199 la_data_out[28]
*200 la_data_out[29]
*201 la_data_out[2]
*202 la_data_out[30]
*203 la_data_out[31]
*204 la_data_out[32]
*205 la_data_out[33]
*206 la_data_out[34]
*207 la_data_out[35]
*208 la_data_out[36]
*209 la_data_out[37]
*210 la_data_out[38]
*211 la_data_out[39]
*212 la_data_out[3]
*213 la_data_out[40]
*214 la_data_out[41]
*215 la_data_out[42]
*216 la_data_out[43]
*217 la_data_out[44]
*218 la_data_out[45]
*219 la_data_out[46]
*220 la_data_out[47]
*221 la_data_out[48]
*222 la_data_out[49]
*223 la_data_out[4]
*224 la_data_out[50]
*225 la_data_out[51]
*226 la_data_out[52]
*227 la_data_out[53]
*228 la_data_out[54]
*229 la_data_out[55]
*230 la_data_out[56]
*231 la_data_out[57]
*232 la_data_out[58]
*233 la_data_out[59]
*234 la_data_out[5]
*235 la_data_out[60]
*236 la_data_out[61]
*237 la_data_out[62]
*238 la_data_out[63]
*239 la_data_out[6]
*240 la_data_out[7]
*241 la_data_out[8]
*242 la_data_out[9]
*243 la_oenb[0]
*244 la_oenb[10]
*245 la_oenb[11]
*246 la_oenb[12]
*247 la_oenb[13]
*248 la_oenb[14]
*249 la_oenb[15]
*250 la_oenb[16]
*251 la_oenb[17]
*252 la_oenb[18]
*253 la_oenb[19]
*254 la_oenb[1]
*255 la_oenb[20]
*256 la_oenb[21]
*257 la_oenb[22]
*258 la_oenb[23]
*259 la_oenb[24]
*260 la_oenb[25]
*261 la_oenb[26]
*262 la_oenb[27]
*263 la_oenb[28]
*264 la_oenb[29]
*265 la_oenb[2]
*266 la_oenb[30]
*267 la_oenb[31]
*268 la_oenb[32]
*269 la_oenb[33]
*270 la_oenb[34]
*271 la_oenb[35]
*272 la_oenb[36]
*273 la_oenb[37]
*274 la_oenb[38]
*275 la_oenb[39]
*276 la_oenb[3]
*277 la_oenb[40]
*278 la_oenb[41]
*279 la_oenb[42]
*280 la_oenb[43]
*281 la_oenb[44]
*282 la_oenb[45]
*283 la_oenb[46]
*284 la_oenb[47]
*285 la_oenb[48]
*286 la_oenb[49]
*287 la_oenb[4]
*288 la_oenb[50]
*289 la_oenb[51]
*290 la_oenb[52]
*291 la_oenb[53]
*292 la_oenb[54]
*293 la_oenb[55]
*294 la_oenb[56]
*295 la_oenb[57]
*296 la_oenb[58]
*297 la_oenb[59]
*298 la_oenb[5]
*299 la_oenb[60]
*300 la_oenb[61]
*301 la_oenb[62]
*302 la_oenb[63]
*303 la_oenb[6]
*304 la_oenb[7]
*305 la_oenb[8]
*306 la_oenb[9]
*307 user_clock2
*308 user_irq[0]
*309 user_irq[1]
*310 user_irq[2]
*313 wb_clk_i
*314 wb_rst_i
*315 wbs_ack_o
*316 wbs_adr_i[0]
*317 wbs_adr_i[10]
*318 wbs_adr_i[11]
*319 wbs_adr_i[12]
*320 wbs_adr_i[13]
*321 wbs_adr_i[14]
*322 wbs_adr_i[15]
*323 wbs_adr_i[16]
*324 wbs_adr_i[17]
*325 wbs_adr_i[18]
*326 wbs_adr_i[19]
*327 wbs_adr_i[1]
*328 wbs_adr_i[20]
*329 wbs_adr_i[21]
*330 wbs_adr_i[22]
*331 wbs_adr_i[23]
*332 wbs_adr_i[24]
*333 wbs_adr_i[25]
*334 wbs_adr_i[26]
*335 wbs_adr_i[27]
*336 wbs_adr_i[28]
*337 wbs_adr_i[29]
*338 wbs_adr_i[2]
*339 wbs_adr_i[30]
*340 wbs_adr_i[31]
*341 wbs_adr_i[3]
*342 wbs_adr_i[4]
*343 wbs_adr_i[5]
*344 wbs_adr_i[6]
*345 wbs_adr_i[7]
*346 wbs_adr_i[8]
*347 wbs_adr_i[9]
*348 wbs_cyc_i
*349 wbs_dat_i[0]
*350 wbs_dat_i[10]
*351 wbs_dat_i[11]
*352 wbs_dat_i[12]
*353 wbs_dat_i[13]
*354 wbs_dat_i[14]
*355 wbs_dat_i[15]
*356 wbs_dat_i[16]
*357 wbs_dat_i[17]
*358 wbs_dat_i[18]
*359 wbs_dat_i[19]
*360 wbs_dat_i[1]
*361 wbs_dat_i[20]
*362 wbs_dat_i[21]
*363 wbs_dat_i[22]
*364 wbs_dat_i[23]
*365 wbs_dat_i[24]
*366 wbs_dat_i[25]
*367 wbs_dat_i[26]
*368 wbs_dat_i[27]
*369 wbs_dat_i[28]
*370 wbs_dat_i[29]
*371 wbs_dat_i[2]
*372 wbs_dat_i[30]
*373 wbs_dat_i[31]
*374 wbs_dat_i[3]
*375 wbs_dat_i[4]
*376 wbs_dat_i[5]
*377 wbs_dat_i[6]
*378 wbs_dat_i[7]
*379 wbs_dat_i[8]
*380 wbs_dat_i[9]
*381 wbs_dat_o[0]
*382 wbs_dat_o[10]
*383 wbs_dat_o[11]
*384 wbs_dat_o[12]
*385 wbs_dat_o[13]
*386 wbs_dat_o[14]
*387 wbs_dat_o[15]
*388 wbs_dat_o[16]
*389 wbs_dat_o[17]
*390 wbs_dat_o[18]
*391 wbs_dat_o[19]
*392 wbs_dat_o[1]
*393 wbs_dat_o[20]
*394 wbs_dat_o[21]
*395 wbs_dat_o[22]
*396 wbs_dat_o[23]
*397 wbs_dat_o[24]
*398 wbs_dat_o[25]
*399 wbs_dat_o[26]
*400 wbs_dat_o[27]
*401 wbs_dat_o[28]
*402 wbs_dat_o[29]
*403 wbs_dat_o[2]
*404 wbs_dat_o[30]
*405 wbs_dat_o[31]
*406 wbs_dat_o[3]
*407 wbs_dat_o[4]
*408 wbs_dat_o[5]
*409 wbs_dat_o[6]
*410 wbs_dat_o[7]
*411 wbs_dat_o[8]
*412 wbs_dat_o[9]
*413 wbs_sel_i[0]
*414 wbs_sel_i[1]
*415 wbs_sel_i[2]
*416 wbs_sel_i[3]
*417 wbs_stb_i
*418 wbs_we_i
*419 mprj

*PORTS
io_in[0] I
io_in[10] I
io_in[11] I
io_in[12] I
io_in[13] I
io_in[14] I
io_in[15] I
io_in[16] I
io_in[17] I
io_in[18] I
io_in[19] I
io_in[1] I
io_in[20] I
io_in[21] I
io_in[22] I
io_in[23] I
io_in[24] I
io_in[25] I
io_in[26] I
io_in[27] I
io_in[28] I
io_in[29] I
io_in[2] I
io_in[30] I
io_in[31] I
io_in[32] I
io_in[33] I
io_in[34] I
io_in[35] I
io_in[36] I
io_in[37] I
io_in[3] I
io_in[4] I
io_in[5] I
io_in[6] I
io_in[7] I
io_in[8] I
io_in[9] I
io_oeb[0] O
io_oeb[10] O
io_oeb[11] O
io_oeb[12] O
io_oeb[13] O
io_oeb[14] O
io_oeb[15] O
io_oeb[16] O
io_oeb[17] O
io_oeb[18] O
io_oeb[19] O
io_oeb[1] O
io_oeb[20] O
io_oeb[21] O
io_oeb[22] O
io_oeb[23] O
io_oeb[24] O
io_oeb[25] O
io_oeb[26] O
io_oeb[27] O
io_oeb[28] O
io_oeb[29] O
io_oeb[2] O
io_oeb[30] O
io_oeb[31] O
io_oeb[32] O
io_oeb[33] O
io_oeb[34] O
io_oeb[35] O
io_oeb[36] O
io_oeb[37] O
io_oeb[3] O
io_oeb[4] O
io_oeb[5] O
io_oeb[6] O
io_oeb[7] O
io_oeb[8] O
io_oeb[9] O
io_out[0] O
io_out[10] O
io_out[11] O
io_out[12] O
io_out[13] O
io_out[14] O
io_out[15] O
io_out[16] O
io_out[17] O
io_out[18] O
io_out[19] O
io_out[1] O
io_out[20] O
io_out[21] O
io_out[22] O
io_out[23] O
io_out[24] O
io_out[25] O
io_out[26] O
io_out[27] O
io_out[28] O
io_out[29] O
io_out[2] O
io_out[30] O
io_out[31] O
io_out[32] O
io_out[33] O
io_out[34] O
io_out[35] O
io_out[36] O
io_out[37] O
io_out[3] O
io_out[4] O
io_out[5] O
io_out[6] O
io_out[7] O
io_out[8] O
io_out[9] O
la_data_in[0] I
la_data_in[10] I
la_data_in[11] I
la_data_in[12] I
la_data_in[13] I
la_data_in[14] I
la_data_in[15] I
la_data_in[16] I
la_data_in[17] I
la_data_in[18] I
la_data_in[19] I
la_data_in[1] I
la_data_in[20] I
la_data_in[21] I
la_data_in[22] I
la_data_in[23] I
la_data_in[24] I
la_data_in[25] I
la_data_in[26] I
la_data_in[27] I
la_data_in[28] I
la_data_in[29] I
la_data_in[2] I
la_data_in[30] I
la_data_in[31] I
la_data_in[32] I
la_data_in[33] I
la_data_in[34] I
la_data_in[35] I
la_data_in[36] I
la_data_in[37] I
la_data_in[38] I
la_data_in[39] I
la_data_in[3] I
la_data_in[40] I
la_data_in[41] I
la_data_in[42] I
la_data_in[43] I
la_data_in[44] I
la_data_in[45] I
la_data_in[46] I
la_data_in[47] I
la_data_in[48] I
la_data_in[49] I
la_data_in[4] I
la_data_in[50] I
la_data_in[51] I
la_data_in[52] I
la_data_in[53] I
la_data_in[54] I
la_data_in[55] I
la_data_in[56] I
la_data_in[57] I
la_data_in[58] I
la_data_in[59] I
la_data_in[5] I
la_data_in[60] I
la_data_in[61] I
la_data_in[62] I
la_data_in[63] I
la_data_in[6] I
la_data_in[7] I
la_data_in[8] I
la_data_in[9] I
la_data_out[0] O
la_data_out[10] O
la_data_out[11] O
la_data_out[12] O
la_data_out[13] O
la_data_out[14] O
la_data_out[15] O
la_data_out[16] O
la_data_out[17] O
la_data_out[18] O
la_data_out[19] O
la_data_out[1] O
la_data_out[20] O
la_data_out[21] O
la_data_out[22] O
la_data_out[23] O
la_data_out[24] O
la_data_out[25] O
la_data_out[26] O
la_data_out[27] O
la_data_out[28] O
la_data_out[29] O
la_data_out[2] O
la_data_out[30] O
la_data_out[31] O
la_data_out[32] O
la_data_out[33] O
la_data_out[34] O
la_data_out[35] O
la_data_out[36] O
la_data_out[37] O
la_data_out[38] O
la_data_out[39] O
la_data_out[3] O
la_data_out[40] O
la_data_out[41] O
la_data_out[42] O
la_data_out[43] O
la_data_out[44] O
la_data_out[45] O
la_data_out[46] O
la_data_out[47] O
la_data_out[48] O
la_data_out[49] O
la_data_out[4] O
la_data_out[50] O
la_data_out[51] O
la_data_out[52] O
la_data_out[53] O
la_data_out[54] O
la_data_out[55] O
la_data_out[56] O
la_data_out[57] O
la_data_out[58] O
la_data_out[59] O
la_data_out[5] O
la_data_out[60] O
la_data_out[61] O
la_data_out[62] O
la_data_out[63] O
la_data_out[6] O
la_data_out[7] O
la_data_out[8] O
la_data_out[9] O
la_oenb[0] I
la_oenb[10] I
la_oenb[11] I
la_oenb[12] I
la_oenb[13] I
la_oenb[14] I
la_oenb[15] I
la_oenb[16] I
la_oenb[17] I
la_oenb[18] I
la_oenb[19] I
la_oenb[1] I
la_oenb[20] I
la_oenb[21] I
la_oenb[22] I
la_oenb[23] I
la_oenb[24] I
la_oenb[25] I
la_oenb[26] I
la_oenb[27] I
la_oenb[28] I
la_oenb[29] I
la_oenb[2] I
la_oenb[30] I
la_oenb[31] I
la_oenb[32] I
la_oenb[33] I
la_oenb[34] I
la_oenb[35] I
la_oenb[36] I
la_oenb[37] I
la_oenb[38] I
la_oenb[39] I
la_oenb[3] I
la_oenb[40] I
la_oenb[41] I
la_oenb[42] I
la_oenb[43] I
la_oenb[44] I
la_oenb[45] I
la_oenb[46] I
la_oenb[47] I
la_oenb[48] I
la_oenb[49] I
la_oenb[4] I
la_oenb[50] I
la_oenb[51] I
la_oenb[52] I
la_oenb[53] I
la_oenb[54] I
la_oenb[55] I
la_oenb[56] I
la_oenb[57] I
la_oenb[58] I
la_oenb[59] I
la_oenb[5] I
la_oenb[60] I
la_oenb[61] I
la_oenb[62] I
la_oenb[63] I
la_oenb[6] I
la_oenb[7] I
la_oenb[8] I
la_oenb[9] I
user_clock2 I
user_irq[0] O
user_irq[1] O
user_irq[2] O
wb_clk_i I
wb_rst_i I
wbs_ack_o O
wbs_adr_i[0] I
wbs_adr_i[10] I
wbs_adr_i[11] I
wbs_adr_i[12] I
wbs_adr_i[13] I
wbs_adr_i[14] I
wbs_adr_i[15] I
wbs_adr_i[16] I
wbs_adr_i[17] I
wbs_adr_i[18] I
wbs_adr_i[19] I
wbs_adr_i[1] I
wbs_adr_i[20] I
wbs_adr_i[21] I
wbs_adr_i[22] I
wbs_adr_i[23] I
wbs_adr_i[24] I
wbs_adr_i[25] I
wbs_adr_i[26] I
wbs_adr_i[27] I
wbs_adr_i[28] I
wbs_adr_i[29] I
wbs_adr_i[2] I
wbs_adr_i[30] I
wbs_adr_i[31] I
wbs_adr_i[3] I
wbs_adr_i[4] I
wbs_adr_i[5] I
wbs_adr_i[6] I
wbs_adr_i[7] I
wbs_adr_i[8] I
wbs_adr_i[9] I
wbs_cyc_i I
wbs_dat_i[0] I
wbs_dat_i[10] I
wbs_dat_i[11] I
wbs_dat_i[12] I
wbs_dat_i[13] I
wbs_dat_i[14] I
wbs_dat_i[15] I
wbs_dat_i[16] I
wbs_dat_i[17] I
wbs_dat_i[18] I
wbs_dat_i[19] I
wbs_dat_i[1] I
wbs_dat_i[20] I
wbs_dat_i[21] I
wbs_dat_i[22] I
wbs_dat_i[23] I
wbs_dat_i[24] I
wbs_dat_i[25] I
wbs_dat_i[26] I
wbs_dat_i[27] I
wbs_dat_i[28] I
wbs_dat_i[29] I
wbs_dat_i[2] I
wbs_dat_i[30] I
wbs_dat_i[31] I
wbs_dat_i[3] I
wbs_dat_i[4] I
wbs_dat_i[5] I
wbs_dat_i[6] I
wbs_dat_i[7] I
wbs_dat_i[8] I
wbs_dat_i[9] I
wbs_dat_o[0] O
wbs_dat_o[10] O
wbs_dat_o[11] O
wbs_dat_o[12] O
wbs_dat_o[13] O
wbs_dat_o[14] O
wbs_dat_o[15] O
wbs_dat_o[16] O
wbs_dat_o[17] O
wbs_dat_o[18] O
wbs_dat_o[19] O
wbs_dat_o[1] O
wbs_dat_o[20] O
wbs_dat_o[21] O
wbs_dat_o[22] O
wbs_dat_o[23] O
wbs_dat_o[24] O
wbs_dat_o[25] O
wbs_dat_o[26] O
wbs_dat_o[27] O
wbs_dat_o[28] O
wbs_dat_o[29] O
wbs_dat_o[2] O
wbs_dat_o[30] O
wbs_dat_o[31] O
wbs_dat_o[3] O
wbs_dat_o[4] O
wbs_dat_o[5] O
wbs_dat_o[6] O
wbs_dat_o[7] O
wbs_dat_o[8] O
wbs_dat_o[9] O
wbs_sel_i[0] I
wbs_sel_i[1] I
wbs_sel_i[2] I
wbs_sel_i[3] I
wbs_stb_i I
wbs_we_i I

*D_NET *313 0.220649
*CONN
*P wb_clk_i I
*I *419:clk I *D fibonacci
*CAP
1 wb_clk_i 0.000220341
2 *419:clk 0.00047304
3 *313:16 0.0563491
4 *313:15 0.0558761
5 *313:13 0.0537553
6 *313:11 0.0539756
*RES
1 wb_clk_i *313:11 2.655 
2 *313:11 *313:13 538.11 
3 *313:13 *313:15 4.5 
4 *313:15 *313:16 606.87 
5 *313:16 *419:clk 9.225 
*END

*D_NET *349 0.210573
*CONN
*P wbs_dat_i[0] I
*I *419:n[0] I *D fibonacci
*CAP
1 wbs_dat_i[0] 0.000990574
2 *419:n[0] 0.000867852
3 *349:11 0.0536735
4 *349:10 0.0528056
5 *349:8 0.0300756
6 *349:7 0.0310661
7 *419:n[0] *376:14 0
8 *349:8 *404:14 0.0410942
*RES
1 wbs_dat_i[0] *349:7 13.365 
2 *349:7 *349:8 350.19 
3 *349:8 *349:10 4.5 
4 *349:10 *349:11 528.03 
5 *349:11 *419:n[0] 17.595 
*END

*D_NET *360 0.177055
*CONN
*P wbs_dat_i[1] I
*I *419:n[1] I *D fibonacci
*CAP
1 wbs_dat_i[1] 0.00117058
2 *419:n[1] 8.92707e-05
3 *360:11 0.0531432
4 *360:10 0.0530539
5 *360:8 0.0342135
6 *360:7 0.035384
7 *360:7 *392:17 0
*RES
1 wbs_dat_i[1] *360:7 16.065 
2 *360:7 *360:8 369.09 
3 *360:8 *360:10 4.5 
4 *360:10 *360:11 530.64 
5 *360:11 *419:n[1] 0.945 
*END

*D_NET *371 0.181966
*CONN
*P wbs_dat_i[2] I
*I *419:n[2] I *D fibonacci
*CAP
1 wbs_dat_i[2] 0.000505087
2 *419:n[2] 0.000200859
3 *371:17 0.0443834
4 *371:16 0.0441825
5 *371:14 0.0353255
6 *371:13 0.0353255
7 *371:11 0.00945751
8 *371:10 0.0099626
9 *371:10 wbs_dat_o[2] 0.00144233
10 *371:10 *381:10 0.00118089
11 *371:11 wbs_dat_o[2] 0
*RES
1 wbs_dat_i[2] *371:10 17.055 
2 *371:10 *371:11 94.41 
3 *371:11 *371:13 4.5 
4 *371:13 *371:14 382.23 
5 *371:14 *371:16 4.5 
6 *371:16 *371:17 442.17 
7 *371:17 *419:n[2] 2.025 
*END

*D_NET *374 0.182987
*CONN
*P wbs_dat_i[3] I
*I *419:n[3] I *D fibonacci
*CAP
1 wbs_dat_i[3] 0.00144422
2 *419:n[3] 0.000111588
3 *374:11 0.0529526
4 *374:10 0.052841
5 *374:8 0.0370969
6 *374:7 0.0385412
7 *374:7 *406:17 0
*RES
1 wbs_dat_i[3] *374:7 18.765 
2 *374:7 *374:8 401.31 
3 *374:8 *374:10 4.5 
4 *374:10 *374:11 528.57 
5 *374:11 *419:n[3] 1.125 
*END

*D_NET *375 0.186965
*CONN
*P wbs_dat_i[4] I
*I *419:n[4] I *D fibonacci
*CAP
1 wbs_dat_i[4] 0.00278834
2 *419:n[4] 0.000780163
3 *375:19 0.0519241
4 *375:18 0.051144
5 *375:16 0.0387701
6 *375:15 0.0415584
7 *419:n[4] *376:14 0
*RES
1 wbs_dat_i[4] *375:15 32.445 
2 *375:15 *375:16 419.85 
3 *375:16 *375:18 4.5 
4 *375:18 *375:19 511.83 
5 *375:19 *419:n[4] 16.695 
*END

*D_NET *376 0.19166
*CONN
*P wbs_dat_i[5] I
*I *419:n[5] I *D fibonacci
*CAP
1 wbs_dat_i[5] 0.000939584
2 *419:n[5] 0.000757671
3 *376:14 0.0409074
4 *376:13 0.0401498
5 *376:11 0.0528954
6 *376:10 0.0538349
7 *376:10 wbs_dat_o[5] 0
8 *376:10 *381:10 0.00217561
9 *376:11 wbs_dat_o[5] 0
10 *419:n[0] *376:14 0
11 *419:n[4] *376:14 0
*RES
1 wbs_dat_i[5] *376:10 18.495 
2 *376:10 *376:11 529.11 
3 *376:11 *376:13 4.5 
4 *376:13 *376:14 435.51 
5 *376:14 *419:n[5] 11.925 
*END

*D_NET *377 0.193687
*CONN
*P wbs_dat_i[6] I
*I *419:n[6] I *D fibonacci
*CAP
1 wbs_dat_i[6] 0.00245008
2 *419:n[6] 0.000111588
3 *377:19 0.0521148
4 *377:18 0.0520032
5 *377:16 0.0422746
6 *377:15 0.0447247
7 *377:15 *409:11 7.67196e-06
*RES
1 wbs_dat_i[6] *377:15 29.205 
2 *377:15 *377:16 459.09 
3 *377:16 *377:18 4.5 
4 *377:18 *377:19 520.47 
5 *377:19 *419:n[6] 1.125 
*END

*D_NET *378 0.196597
*CONN
*P wbs_dat_i[7] I
*I *419:n[7] I *D fibonacci
*CAP
1 wbs_dat_i[7] 0.00199666
2 *419:n[7] 8.92707e-05
3 *378:11 0.0522938
4 *378:10 0.0522046
5 *378:8 0.0440081
6 *378:7 0.0460048
*RES
1 wbs_dat_i[7] *378:7 24.165 
2 *378:7 *378:8 477.99 
3 *378:8 *378:10 4.5 
4 *378:10 *378:11 522.54 
5 *378:11 *419:n[7] 0.945 
*END

*D_NET *379 0.20602
*CONN
*P wbs_dat_i[8] I
*I *419:st I *D fibonacci
*CAP
1 wbs_dat_i[8] 0.00349028
2 *419:st 0.0027119
3 *379:19 0.0531724
4 *379:18 0.0504605
5 *379:16 0.0463471
6 *379:15 0.0498374
*RES
1 wbs_dat_i[8] *379:15 39.465 
2 *379:15 *379:16 503.55 
3 *379:16 *379:18 4.5 
4 *379:18 *379:19 504.99 
5 *379:19 *419:st 37.935 
*END

*D_NET *381 0.379251
*CONN
*P wbs_dat_o[0] O
*I *419:fn[0] O *D fibonacci
*CAP
1 wbs_dat_o[0] 0.000620323
2 *419:fn[0] 0.00021408
3 *381:10 0.0244782
4 *381:9 0.0238579
5 *381:7 0.0727734
6 *381:5 0.0729875
7 *381:5 *401:17 0.000210354
8 *381:7 *384:11 0
9 *381:7 *406:13 0.000156508
10 *381:10 wbs_dat_o[11] 0.001181
11 *381:10 wbs_dat_o[14] 0.00267308
12 *381:10 wbs_dat_o[23] 0.00155413
13 *381:10 wbs_dat_o[29] 0.00267308
14 *381:10 wbs_dat_o[4] 0.00267319
15 *381:10 wbs_dat_o[8] 0.00155402
16 *381:10 *410:14 0.168288
17 *371:10 *381:10 0.00118089
18 *376:10 *381:10 0.00217561
*RES
1 *419:fn[0] *381:5 2.025 
2 *381:5 *381:7 728.19 
3 *381:7 *381:9 4.5 
4 *381:9 *381:10 337.77 
5 *381:10 wbs_dat_o[0] 10.665 
*END

*D_NET *382 0.249134
*CONN
*P wbs_dat_o[10] O
*I *419:fn[10] O *D fibonacci
*CAP
1 wbs_dat_o[10] 0.000113216
2 *419:fn[10] 0.000488577
3 *382:17 0.0736303
4 *382:16 0.0735171
5 *382:14 0.0212176
6 *382:13 0.0217386
7 *382:8 0.00138305
8 *382:7 0.00135053
9 *382:8 *384:8 0.0337573
10 *382:8 *390:8 0.0112527
11 *382:14 *383:8 0
12 *382:14 *388:11 0
13 *382:14 *389:16 0
14 *382:14 *395:13 0.00186509
15 *382:14 *401:17 0.00881955
*RES
1 *419:fn[10] *382:7 9.045 
2 *382:7 *382:8 48.87 
3 *382:8 *382:13 13.77 
4 *382:13 *382:14 278.19 
5 *382:14 *382:16 4.5 
6 *382:16 *382:17 735.21 
7 *382:17 wbs_dat_o[10] 1.575 
*END

*D_NET *383 0.503812
*CONN
*P wbs_dat_o[11] O
*I *419:fn[11] O *D fibonacci
*CAP
1 wbs_dat_o[11] 0.000792438
2 *419:fn[11] 0.000157502
3 *383:11 0.0738934
4 *383:10 0.0731009
5 *383:8 0.0099658
6 *383:7 0.0101233
7 *383:8 *389:16 0.187317
8 *383:8 *396:8 0.14728
9 *381:10 wbs_dat_o[11] 0.001181
10 *382:14 *383:8 0
*RES
1 *419:fn[11] *383:7 5.985 
2 *383:7 *383:8 323.91 
3 *383:8 *383:10 4.5 
4 *383:10 *383:11 730.89 
5 *383:11 wbs_dat_o[11] 16.695 
*END

*D_NET *384 0.258422
*CONN
*P wbs_dat_o[12] O
*I *419:fn[12] O *D fibonacci
*CAP
1 wbs_dat_o[12] 0.00173778
2 *419:fn[12] 0.000459059
3 *384:14 0.0214999
4 *384:13 0.0197621
5 *384:11 0.0719132
6 *384:10 0.0719132
7 *384:8 0.00625246
8 *384:7 0.00671152
9 *384:8 *390:8 0.00448847
10 *384:8 *392:10 0.00864116
11 *384:8 *403:10 0.00207225
12 *384:8 *406:10 0.0069422
13 *384:11 *406:13 0.0022709
14 *381:7 *384:11 0
15 *382:8 *384:8 0.0337573
*RES
1 *419:fn[12] *384:7 8.865 
2 *384:7 *384:8 111.51 
3 *384:8 *384:10 4.5 
4 *384:10 *384:11 722.79 
5 *384:11 *384:13 4.5 
6 *384:13 *384:14 213.93 
7 *384:14 wbs_dat_o[12] 21.465 
*END

*D_NET *385 0.316339
*CONN
*P wbs_dat_o[13] O
*I *419:fn[13] O *D fibonacci
*CAP
1 wbs_dat_o[13] 0.00327721
2 *419:fn[13] 0.000541693
3 *385:14 0.0221475
4 *385:13 0.0188703
5 *385:11 0.0710473
6 *385:10 0.0710473
7 *385:8 0.00419034
8 *385:7 0.00473203
9 *385:8 *387:8 0
10 *385:8 *390:8 0.0851105
11 *385:8 *408:8 0.0353746
*RES
1 *419:fn[13] *385:7 9.585 
2 *385:7 *385:8 123.21 
3 *385:8 *385:10 4.5 
4 *385:10 *385:11 710.01 
5 *385:11 *385:13 4.5 
6 *385:13 *385:14 203.85 
7 *385:14 wbs_dat_o[13] 37.125 
*END

*D_NET *386 0.49856
*CONN
*P wbs_dat_o[14] O
*I *419:fn[14] O *D fibonacci
*CAP
1 wbs_dat_o[14] 0.000870698
2 *419:fn[14] 0.000209892
3 *386:12 0.0735698
4 *386:11 0.0726991
5 *386:9 0.0100979
6 *386:8 0.0103078
7 *386:9 *388:11 0
8 *386:9 *393:9 0.187318
9 *386:9 *399:14 0.140815
10 *381:10 wbs_dat_o[14] 0.00267308
*RES
1 *419:fn[14] *386:8 15.39 
2 *386:8 *386:9 321.21 
3 *386:9 *386:11 4.5 
4 *386:11 *386:12 726.75 
5 *386:12 wbs_dat_o[14] 18.855 
*END

*D_NET *387 0.375547
*CONN
*P wbs_dat_o[15] O
*I *419:fn[15] O *D fibonacci
*CAP
1 wbs_dat_o[15] 0.000113216
2 *419:fn[15] 0.00070237
3 *387:11 0.0743489
4 *387:10 0.0742357
5 *387:8 0.0187523
6 *387:7 0.0194547
7 *387:8 *390:8 0
8 *387:8 *394:8 0.187939
9 *387:8 *408:8 0
10 *385:8 *387:8 0
*RES
1 *419:fn[15] *387:7 11.205 
2 *387:7 *387:8 326.07 
3 *387:8 *387:10 4.5 
4 *387:10 *387:11 742.05 
5 *387:11 wbs_dat_o[15] 1.575 
*END

*D_NET *388 0.374145
*CONN
*P wbs_dat_o[16] O
*I *419:fn[16] O *D fibonacci
*CAP
1 wbs_dat_o[16] 0.000220341
2 *419:fn[16] 0.000738963
3 *388:14 0.0736395
4 *388:13 0.0734191
5 *388:11 0.0135624
6 *388:10 0.0143013
7 *388:10 *401:17 0.0086416
8 *388:11 *393:9 0
9 *388:11 *395:13 0.178116
10 *388:11 *399:14 0.00346907
11 *388:11 *412:9 0.00803621
12 *382:14 *388:11 0
13 *386:9 *388:11 0
*RES
1 *419:fn[16] *388:10 26.64 
2 *388:10 *388:11 314.55 
3 *388:11 *388:13 4.5 
4 *388:13 *388:14 733.95 
5 *388:14 wbs_dat_o[16] 2.655 
*END

*D_NET *389 0.38988
*CONN
*P wbs_dat_o[17] O
*I *419:fn[17] O *D fibonacci
*CAP
1 wbs_dat_o[17] 0.0032815
2 *419:fn[17] 0.00179772
3 *389:19 0.0737395
4 *389:18 0.070458
5 *389:16 0.0141298
6 *389:14 0.0151545
7 *389:10 0.00282239
8 *389:10 *396:8 0.00710806
9 *389:14 *396:8 0.0131178
10 *389:16 *396:8 0.000953268
11 *382:14 *389:16 0
12 *383:8 *389:16 0.187317
*RES
1 *419:fn[17] *389:10 37.035 
2 *389:10 *389:14 19.26 
3 *389:14 *389:16 275.4 
4 *389:16 *389:18 4.5 
5 *389:18 *389:19 704.88 
6 *389:19 wbs_dat_o[17] 32.265 
*END

*D_NET *390 0.315997
*CONN
*P wbs_dat_o[18] O
*I *419:fn[18] O *D fibonacci
*CAP
1 wbs_dat_o[18] 0.000166779
2 *419:fn[18] 0.0004881
3 *390:17 0.0122035
4 *390:16 0.0120367
5 *390:14 0.0143682
6 *390:13 0.0143682
7 *390:11 0.062109
8 *390:10 0.062109
9 *390:8 0.00487588
10 *390:7 0.00536398
11 *390:7 *391:13 8.5926e-05
12 *390:8 *392:10 0.00054392
13 *390:8 *399:8 0.00497738
14 *390:8 *406:10 0.0208269
15 *390:8 *408:8 0.000621697
16 *382:8 *390:8 0.0112527
17 *384:8 *390:8 0.00448847
18 *385:8 *390:8 0.0851105
19 *387:8 *390:8 0
*RES
1 *419:fn[18] *390:7 9.405 
2 *390:7 *390:8 170.91 
3 *390:8 *390:10 4.5 
4 *390:10 *390:11 620.73 
5 *390:11 *390:13 4.5 
6 *390:13 *390:14 155.25 
7 *390:14 *390:16 4.5 
8 *390:16 *390:17 119.61 
9 *390:17 wbs_dat_o[18] 2.115 
*END

*D_NET *391 0.38371
*CONN
*P wbs_dat_o[19] O
*I *419:fn[19] O *D fibonacci
*CAP
1 wbs_dat_o[19] 0.0745734
2 *419:fn[19] 0.00152307
3 *391:16 0.0745734
4 *391:14 0.0161195
5 *391:13 0.0176426
6 *391:13 *399:8 0.00590602
7 *391:14 *398:8 0.180852
8 *391:14 *409:8 0.0124339
9 *390:7 *391:13 8.5926e-05
*RES
1 *419:fn[19] *391:13 31.905 
2 *391:13 *391:14 315.81 
3 *391:14 *391:16 4.5 
4 *391:16 wbs_dat_o[19] 745.065 
*END

*D_NET *392 0.232444
*CONN
*P wbs_dat_o[1] O
*I *419:fn[1] O *D fibonacci
*CAP
1 wbs_dat_o[1] 0.000113216
2 *419:fn[1] 0.00103001
3 *392:17 0.00506472
4 *392:16 0.0049515
5 *392:14 0.0293251
6 *392:13 0.0293251
7 *392:11 0.0690452
8 *392:10 0.0700752
9 *392:10 *403:10 0.0142358
10 *392:10 *408:8 9.32436e-05
11 *360:7 *392:17 0
12 *384:8 *392:10 0.00864116
13 *390:8 *392:10 0.00054392
*RES
1 *419:fn[1] *392:10 33.795 
2 *392:10 *392:11 690.21 
3 *392:11 *392:13 4.5 
4 *392:13 *392:14 317.25 
5 *392:14 *392:16 4.5 
6 *392:16 *392:17 49.41 
7 *392:17 wbs_dat_o[1] 1.575 
*END

*D_NET *393 0.371976
*CONN
*P wbs_dat_o[20] O
*I *419:fn[20] O *D fibonacci
*CAP
1 wbs_dat_o[20] 0.000113216
2 *419:fn[20] 0.00016478
3 *393:12 0.07338
4 *393:11 0.0732668
5 *393:9 0.018778
6 *393:8 0.0189428
7 *393:8 *401:15 1.25228e-05
8 *393:9 *395:11 0
9 *393:9 *395:13 0
10 *386:9 *393:9 0.187318
11 *388:11 *393:9 0
*RES
1 *419:fn[20] *393:8 15.39 
2 *393:8 *393:9 325.17 
3 *393:9 *393:11 4.5 
4 *393:11 *393:12 732.51 
5 *393:12 wbs_dat_o[20] 1.575 
*END

*D_NET *394 0.539961
*CONN
*P wbs_dat_o[21] O
*I *419:fn[21] O *D fibonacci
*CAP
1 wbs_dat_o[21] 0.000220341
2 *419:fn[21] 0.000708571
3 *394:11 0.0745126
4 *394:10 0.0742922
5 *394:8 0.00775248
6 *394:7 0.00846105
7 *394:8 *400:8 0.186074
8 *387:8 *394:8 0.187939
*RES
1 *419:fn[21] *394:7 11.385 
2 *394:7 *394:8 326.07 
3 *394:8 *394:10 4.5 
4 *394:10 *394:11 742.23 
5 *394:11 wbs_dat_o[21] 2.655 
*END

*D_NET *395 0.522321
*CONN
*P wbs_dat_o[22] O
*I *419:fn[22] O *D fibonacci
*CAP
1 wbs_dat_o[22] 0.0032815
2 *419:fn[22] 0.00206945
3 *395:16 0.0734954
4 *395:15 0.0702139
5 *395:13 0.00544783
6 *395:11 0.00751728
7 *395:11 *401:5 0.0121231
8 *395:11 *401:15 0.00779324
9 *395:13 *401:17 0.160398
10 *382:14 *395:13 0.00186509
11 *388:11 *395:13 0.178116
12 *393:9 *395:11 0
13 *393:9 *395:13 0
*RES
1 *419:fn[22] *395:11 43.65 
2 *395:11 *395:13 286.2 
3 *395:13 *395:15 4.5 
4 *395:15 *395:16 702.36 
5 *395:16 wbs_dat_o[22] 32.265 
*END

*D_NET *396 0.406225
*CONN
*P wbs_dat_o[23] O
*I *419:fn[23] O *D fibonacci
*CAP
1 wbs_dat_o[23] 0.000819823
2 *419:fn[23] 0.000188255
3 *396:11 0.073994
4 *396:10 0.0731742
5 *396:8 0.0153564
6 *396:7 0.0155446
7 *396:8 *410:8 0.0571339
8 *381:10 wbs_dat_o[23] 0.00155413
9 *383:8 *396:8 0.14728
10 *389:10 *396:8 0.00710806
11 *389:14 *396:8 0.0131178
12 *389:16 *396:8 0.000953268
*RES
1 *419:fn[23] *396:7 6.165 
2 *396:7 *396:8 321.21 
3 *396:8 *396:10 4.5 
4 *396:10 *396:11 731.07 
5 *396:11 wbs_dat_o[23] 17.235 
*END

*D_NET *397 0.298569
*CONN
*P wbs_dat_o[24] O
*I *419:fn[24] O *D fibonacci
*CAP
1 wbs_dat_o[24] 0.0748584
2 *419:fn[24] 0.00125002
3 *397:10 0.0748584
4 *397:8 0.023658
5 *397:7 0.0249081
6 *397:8 *407:8 0.0990365
*RES
1 *419:fn[24] *397:7 16.785 
2 *397:7 *397:8 323.37 
3 *397:8 *397:10 4.5 
4 *397:10 wbs_dat_o[24] 747.585 
*END

*D_NET *398 0.46348
*CONN
*P wbs_dat_o[25] O
*I *419:fn[25] O *D fibonacci
*CAP
1 wbs_dat_o[25] 0.000113216
2 *419:fn[25] 0.000976383
3 *398:11 0.074687
4 *398:10 0.0745738
5 *398:8 0.0127128
6 *398:7 0.0136892
7 *398:8 *409:8 0.105875
8 *391:14 *398:8 0.180852
*RES
1 *419:fn[25] *398:7 14.085 
2 *398:7 *398:8 324.27 
3 *398:8 *398:10 4.5 
4 *398:10 *398:11 744.93 
5 *398:11 wbs_dat_o[25] 1.575 
*END

*D_NET *399 0.405922
*CONN
*P wbs_dat_o[26] O
*I *419:fn[26] O *D fibonacci
*CAP
1 wbs_dat_o[26] 0.000220341
2 *419:fn[26] 0.000428178
3 *399:17 0.073544
4 *399:16 0.0733237
5 *399:14 0.00458551
6 *399:13 0.00526454
7 *399:8 0.0111033
8 *399:7 0.0108524
9 *399:14 *412:9 0.0714331
10 *386:9 *399:14 0.140815
11 *388:11 *399:14 0.00346907
12 *390:8 *399:8 0.00497738
13 *391:13 *399:8 0.00590602
*RES
1 *419:fn[26] *399:7 8.685 
2 *399:7 *399:8 121.41 
3 *399:8 *399:13 15.75 
4 *399:13 *399:14 203.85 
5 *399:14 *399:16 4.5 
6 *399:16 *399:17 732.87 
7 *399:17 wbs_dat_o[26] 2.655 
*END

*D_NET *400 0.373423
*CONN
*P wbs_dat_o[27] O
*I *419:fn[27] O *D fibonacci
*CAP
1 wbs_dat_o[27] 0.0032815
2 *419:fn[27] 0.000716141
3 *400:11 0.0743743
4 *400:10 0.0710928
5 *400:8 0.0185842
6 *400:7 0.0193003
7 *394:8 *400:8 0.186074
*RES
1 *419:fn[27] *400:7 11.565 
2 *400:7 *400:8 323.37 
3 *400:8 *400:10 4.5 
4 *400:10 *400:11 710.64 
5 *400:11 wbs_dat_o[27] 32.265 
*END

*D_NET *401 0.374757
*CONN
*P wbs_dat_o[28] O
*I *419:fn[28] O *D fibonacci
*CAP
1 wbs_dat_o[28] 0.000166779
2 *419:fn[28] 0
3 *401:20 0.0736508
4 *401:19 0.073484
5 *401:17 0.00770189
6 *401:15 0.00896193
7 *401:5 0.00702682
8 *401:4 0.00576677
9 *381:5 *401:17 0.000210354
10 *382:14 *401:17 0.00881955
11 *388:10 *401:17 0.0086416
12 *393:8 *401:15 1.25228e-05
13 *395:11 *401:5 0.0121231
14 *395:11 *401:15 0.00779324
15 *395:13 *401:17 0.160398
*RES
1 *419:fn[28] *401:4 4.5 
2 *401:4 *401:5 71.55 
3 *401:5 *401:15 30.69 
4 *401:15 *401:17 232.2 
5 *401:17 *401:19 4.5 
6 *401:19 *401:20 734.31 
7 *401:20 wbs_dat_o[28] 2.115 
*END

*D_NET *402 0.292943
*CONN
*P wbs_dat_o[29] O
*I *419:fn[29] O *D fibonacci
*CAP
1 wbs_dat_o[29] 0.000866927
2 *419:fn[29] 0.00161778
3 *402:13 0.0754433
4 *402:12 0.0745764
5 *402:10 0.0237159
6 *402:9 0.0253337
7 *402:10 *411:10 0.0887163
8 *381:10 wbs_dat_o[29] 0.00267308
*RES
1 *419:fn[29] *402:9 20.655 
2 *402:9 *402:10 317.43 
3 *402:10 *402:12 4.5 
4 *402:12 *402:13 744.39 
5 *402:13 wbs_dat_o[29] 18.855 
*END

*D_NET *403 0.227223
*CONN
*P wbs_dat_o[2] O
*I *419:fn[2] O *D fibonacci
*CAP
1 wbs_dat_o[2] 0.00281064
2 *419:fn[2] 0.00260007
3 *403:14 0.0309291
4 *403:13 0.0281185
5 *403:11 0.0712071
6 *403:10 0.0738072
7 *371:10 wbs_dat_o[2] 0.00144233
8 *371:11 wbs_dat_o[2] 0
9 *384:8 *403:10 0.00207225
10 *392:10 *403:10 0.0142358
*RES
1 *419:fn[2] *403:10 45.315 
2 *403:10 *403:11 711.63 
3 *403:11 *403:13 4.5 
4 *403:13 *403:14 303.75 
5 *403:14 wbs_dat_o[2] 35.325 
*END

*D_NET *404 0.248058
*CONN
*P wbs_dat_o[30] O
*I *419:fn[30] O *D fibonacci
*CAP
1 wbs_dat_o[30] 0.000929555
2 *419:fn[30] 0.00158908
3 *404:14 0.028927
4 *404:13 0.0279975
5 *404:11 0.0729655
6 *404:10 0.0745546
7 *349:8 *404:14 0.0410942
*RES
1 *419:fn[30] *404:10 24.615 
2 *404:10 *404:11 730.35 